[TITLE]
H4110
CAVINATO
SECTEUR = XXXXXXX
GIRIS NETWORK MODELER (GNM)
 DT      =      0.16666667
 ECHO    = YES
 FORCE   = YES
 MAXITR  =  100
 MODE    = VARIABLE
 PROFDEF = DOMESTIQUE
 NODEDEF = QV
 PROPDT  =      0.05000
 REPORT CONT=  TANKS
 ROUGH   = 1.000000
 STARTDAT= 03/08/1998
 SUMMARY N=  5 P=20.000 100.00 F=0.100000 1000.000 V=0.5000 8.0000 D=2.000000
  &CONTINU C=0.001000 100.0000 0.001000 100.0000 A=1.0000 100.00
 TABLE   = GNM
 INITIAL = STEADY
 UNITS   = cms
 FLOW     'm3/h    '   0.2777778E-03
 PRESSURE 'mCE     '    9.798300
 LENGTH   'mm      '   0.1000000E-02

[JUNCTIONS]
;ID              	Elev        	Demand      	Pattern         
 N11cd           	244.00      	0.104317    	DOMESTIQUE      	;
 N11c8           	243.00      	0.006615    	DOMESTIQUE      	;
 N11c7           	242.18      	0.042678    	DOMESTIQUE      	;
 N11c3           	242.00      	0.009291    	DOMESTIQUE      	;
 N11bf           	243.00      	0.276421    	DOMESTIQUE      	;
 N11be           	242.58      	0.008252    	DOMESTIQUE      	;
 N11bc           	243.00      	0.050810    	DOMESTIQUE      	;
 N11bb           	242.00      	0.026164    	DOMESTIQUE      	;
 N11ba           	242.05      	0.044458    	DOMESTIQUE      	;
 N11b9           	242.00      	0.048423    	DOMESTIQUE      	;
 N11b8           	242.00      	0.037301    	DOMESTIQUE      	;
 N11b6           	242.00      	0.067107    	DOMESTIQUE      	;
 N11b5           	242.24      	0.026435    	DOMESTIQUE      	;
 N11b4           	241.62      	0.011661    	DOMESTIQUE      	;
 N11b3           	241.03      	0.004667    	DOMESTIQUE      	;
 N11b2           	241.13      	0.025860    	DOMESTIQUE      	;
 N11b1           	242.33      	0.012082    	DOMESTIQUE      	;
 N11b0           	241.21      	0.029225    	DOMESTIQUE      	;
 N11af           	242.32      	0.007308    	DOMESTIQUE      	;
 N11ae           	242.00      	0.027986    	DOMESTIQUE      	;
 N11ad           	242.89      	0.003931    	DOMESTIQUE      	;
 N11ac           	243.00      	0.032422    	DOMESTIQUE      	;
 N11ab           	243.00      	0.122615    	DOMESTIQUE      	;
 N11aa           	243.00      	0.001335    	DOMESTIQUE      	;
 N11a9           	243.00      	0.003104    	DOMESTIQUE      	;
 N11a8           	246.95      	0.000000    	DOMESTIQUE      	;
 N11a7           	247.00      	0.000025    	DOMESTIQUE      	;
 N11a6           	247.00      	0.000019    	DOMESTIQUE      	;
 N11a5           	246.51      	0.000001    	DOMESTIQUE      	;
 N11a4           	246.48      	0.000037    	DOMESTIQUE      	;
 N11a3           	243.00      	0.000004    	DOMESTIQUE      	;
 N11a2           	243.42      	0.000016    	DOMESTIQUE      	;
 N119e           	243.00      	0.180405    	DOMESTIQUE      	;
 N119d           	243.00      	0.072739    	DOMESTIQUE      	;
 N119c           	242.00      	0.028330    	DOMESTIQUE      	;
 N119b           	243.48      	0.155752    	DOMESTIQUE      	;
 N119a           	243.29      	0.148449    	DOMESTIQUE      	;
 N1199           	243.34      	0.031131    	DOMESTIQUE      	;
 N1198           	243.00      	0.140871    	DOMESTIQUE      	;
 N1197           	243.00      	0.160552    	DOMESTIQUE      	;
 N1196           	243.00      	0.036544    	DOMESTIQUE      	;
 N1195           	242.49      	0.307971    	DOMESTIQUE      	;
 N1194           	245.00      	0.368606    	DOMESTIQUE      	;
 N1193           	245.03      	0.000000    	DOMESTIQUE      	;
 N1192           	245.10      	0.231661    	DOMESTIQUE      	;
 N1191           	245.21      	0.000000    	DOMESTIQUE      	;
 N1190           	245.52      	0.240722    	DOMESTIQUE      	;
 N118f           	246.00      	0.235987    	DOMESTIQUE      	;
 N118e           	246.00      	0.096612    	DOMESTIQUE      	;
 N118d           	244.00      	0.033812    	DOMESTIQUE      	;
 N118c           	243.22      	0.196447    	DOMESTIQUE      	;
 N118b           	243.87      	0.061140    	DOMESTIQUE      	;
 N118a           	243.52      	0.012821    	DOMESTIQUE      	;
 N1189           	243.00      	0.028202    	DOMESTIQUE      	;
 N1188           	243.00      	0.000003    	DOMESTIQUE      	;
 N1187           	243.00      	0.015536    	DOMESTIQUE      	;
 N1184           	244.00      	0.184635    	DOMESTIQUE      	;
 N1183           	243.00      	0.152018    	DOMESTIQUE      	;
 N1182           	242.70      	0.185789    	DOMESTIQUE      	;
 N1181           	242.51      	0.083812    	DOMESTIQUE      	;
 N1180           	244.18      	0.061979    	DOMESTIQUE      	;
 N117f           	252.00      	0.000021    	DOMESTIQUE      	;
 N117e           	251.41      	0.000022    	DOMESTIQUE      	;
 N117d           	251.14      	0.000102    	DOMESTIQUE      	;
 N117c           	240.00      	0.137538    	DOMESTIQUE      	;
 N117a           	246.00      	0.007858    	DOMESTIQUE      	;
 N1179           	245.58      	0.042444    	DOMESTIQUE      	;
 N1178           	245.00      	0.025077    	DOMESTIQUE      	;
 N1177           	245.26      	0.131622    	DOMESTIQUE      	;
 N1176           	244.60      	0.187636    	DOMESTIQUE      	;
 N1175           	246.00      	0.000003    	DOMESTIQUE      	;
 N1174           	247.00      	0.048943    	DOMESTIQUE      	;
 N1173           	246.00      	0.066772    	DOMESTIQUE      	;
 N1172           	246.00      	0.098722    	DOMESTIQUE      	;
 N1171           	243.03      	0.046955    	DOMESTIQUE      	;
 N1170           	243.00      	0.166408    	DOMESTIQUE      	;
 N116f           	243.53      	0.221311    	DOMESTIQUE      	;
 N116d           	244.00      	0.096794    	DOMESTIQUE      	;
 N116c           	244.00      	0.351743    	DOMESTIQUE      	;
 N1169           	244.57      	0.249129    	DOMESTIQUE      	;
 N1162           	242.09      	1.433453    	DOMESTIQUE      	;
 N1161           	243.00      	0.253698    	DOMESTIQUE      	;
 N1160           	243.00      	0.149595    	DOMESTIQUE      	;
 N115f           	243.00      	0.019051    	DOMESTIQUE      	;
 N115e           	244.00      	0.007291    	DOMESTIQUE      	;
 N115d           	244.00      	0.159019    	DOMESTIQUE      	;
 N115c           	242.00      	0.151046    	DOMESTIQUE      	;
 N115b           	242.73      	0.000008    	DOMESTIQUE      	;
 N115a           	242.00      	0.056391    	DOMESTIQUE      	;
 N1159           	242.00      	3.207901    	DOMESTIQUE      	;
 N1158           	243.78      	0.000034    	DOMESTIQUE      	;
 N1157           	245.00      	0.073702    	DOMESTIQUE      	;
 N1156           	244.93      	0.173082    	DOMESTIQUE      	;
 N1155           	245.57      	0.006247    	DOMESTIQUE      	;
 N1154           	245.00      	0.056045    	DOMESTIQUE      	;
 N1153           	245.00      	0.042869    	DOMESTIQUE      	;
 N1152           	247.00      	0.039979    	DOMESTIQUE      	;
 N1151           	246.62      	0.003566    	DOMESTIQUE      	;
 N1150           	246.00      	0.054247    	DOMESTIQUE      	;
 N114f           	246.00      	0.060149    	DOMESTIQUE      	;
 N114e           	246.00      	0.003027    	DOMESTIQUE      	;
 N114d           	246.00      	0.056042    	DOMESTIQUE      	;
 N114c           	240.27      	0.466306    	DOMESTIQUE      	;
 N114b           	242.72      	0.466297    	DOMESTIQUE      	;
 N114a           	244.00      	0.032411    	DOMESTIQUE      	;
 N1149           	243.89      	0.164759    	DOMESTIQUE      	;
 N1147           	245.00      	0.181100    	DOMESTIQUE      	;
 N1145           	245.62      	0.000958    	DOMESTIQUE      	;
 N1144           	243.00      	0.001214    	DOMESTIQUE      	;
 N1143           	243.00      	0.524349    	DOMESTIQUE      	;
 N1142           	240.48      	2.026669    	DOMESTIQUE      	;
 N1141           	240.86      	0.057170    	DOMESTIQUE      	;
 N1140           	240.44      	3.726026    	DOMESTIQUE      	;
 N113f           	241.00      	0.060373    	DOMESTIQUE      	;
 N113e           	240.98      	0.033670    	DOMESTIQUE      	;
 N113d           	240.46      	1.877922    	DOMESTIQUE      	;
 N113c           	244.00      	0.002752    	DOMESTIQUE      	;
 N113b           	244.00      	0.089372    	DOMESTIQUE      	;
 N113a           	247.00      	0.000013    	DOMESTIQUE      	;
 N1138           	243.00      	0.202459    	DOMESTIQUE      	;
 N1137           	243.00      	0.000320    	DOMESTIQUE      	;
 N1136           	243.00      	0.076994    	DOMESTIQUE      	;
 N1135           	244.68      	0.131223    	DOMESTIQUE      	;
 N1134           	244.00      	0.154512    	DOMESTIQUE      	;
 N1133           	242.66      	0.000152    	DOMESTIQUE      	;
 N1132           	242.58      	0.153270    	DOMESTIQUE      	;
 N1131           	244.00      	0.064054    	DOMESTIQUE      	;
 N1130           	241.00      	0.186301    	DOMESTIQUE      	;
 N112f           	241.00      	2.689243    	DOMESTIQUE      	;
 N112e           	242.95      	0.033476    	DOMESTIQUE      	;
 N112d           	240.00      	0.134045    	DOMESTIQUE      	;
 N112c           	240.00      	1.913952    	DOMESTIQUE      	;
 N112a           	243.00      	1.862256    	DOMESTIQUE      	;
 N1129           	243.00      	0.103511    	DOMESTIQUE      	;
 N1127           	244.00      	0.102291    	DOMESTIQUE      	;
 N1126           	243.00      	0.178228    	DOMESTIQUE      	;
 N1123           	244.00      	0.185777    	DOMESTIQUE      	;
 N1122           	243.00      	0.106456    	DOMESTIQUE      	;
 N1120           	244.00      	0.329404    	DOMESTIQUE      	;
 N111f           	243.64      	0.012429    	DOMESTIQUE      	;
 N111e           	245.76      	0.057243    	DOMESTIQUE      	;
 N111c           	244.00      	0.189289    	DOMESTIQUE      	;
 N1119           	240.98      	0.122505    	DOMESTIQUE      	;
 N1117           	240.29      	0.018000    	DOMESTIQUE      	;
 N1114           	243.00      	0.158480    	DOMESTIQUE      	;
 N1113           	242.49      	0.022895    	DOMESTIQUE      	;
 N1112           	244.00      	0.363048    	DOMESTIQUE      	;
 N1111           	244.41      	0.003168    	DOMESTIQUE      	;
 N1110           	244.54      	0.000582    	DOMESTIQUE      	;
 N110f           	243.00      	0.001456    	DOMESTIQUE      	;
 N110e           	243.00      	0.000086    	DOMESTIQUE      	;
 N110d           	244.12      	0.005477    	DOMESTIQUE      	;
 N110b           	242.00      	0.015511    	DOMESTIQUE      	;
 N110a           	244.00      	0.009608    	DOMESTIQUE      	;
 N1109           	244.00      	0.019404    	DOMESTIQUE      	;
 N1107           	245.00      	0.000003    	DOMESTIQUE      	;
 N1106           	245.00      	0.069128    	DOMESTIQUE      	;
 N1105           	243.00      	0.077247    	DOMESTIQUE      	;
 N1104           	243.00      	0.208133    	DOMESTIQUE      	;
 N1103           	243.00      	0.052947    	DOMESTIQUE      	;
 N1102           	243.00      	0.107871    	DOMESTIQUE      	;
 N1101           	243.00      	0.232242    	DOMESTIQUE      	;
 N1100           	244.00      	0.007963    	DOMESTIQUE      	;
 N10fe           	244.00      	0.083478    	DOMESTIQUE      	;
 N10fd           	244.00      	0.158183    	DOMESTIQUE      	;
 N10fc           	244.00      	0.006258    	DOMESTIQUE      	;
 N10fb           	244.00      	0.008396    	DOMESTIQUE      	;
 N10fa           	244.00      	0.103482    	DOMESTIQUE      	;
 N10f9           	244.00      	0.452231    	DOMESTIQUE      	;
 N10f6           	242.38      	2.336302    	DOMESTIQUE      	;
 N10f5           	243.00      	0.108665    	DOMESTIQUE      	;
 N10f4           	243.00      	0.026308    	DOMESTIQUE      	;
 N10f3           	244.87      	0.073324    	DOMESTIQUE      	;
 N10f2           	243.00      	0.070621    	DOMESTIQUE      	;
 N10f1           	242.12      	0.099316    	DOMESTIQUE      	;
 N10f0           	242.48      	0.107941    	DOMESTIQUE      	;
 N10ef           	242.91      	0.078560    	DOMESTIQUE      	;
 N10ee           	244.66      	0.027632    	DOMESTIQUE      	;
 N10ed           	244.00      	0.076501    	DOMESTIQUE      	;
 N10ec           	244.00      	0.103080    	DOMESTIQUE      	;
 N10ea           	244.00      	0.115266    	DOMESTIQUE      	;
 N10e9           	244.00      	0.125065    	DOMESTIQUE      	;
 N10e7           	244.00      	0.113680    	DOMESTIQUE      	;
 N10e6           	244.00      	0.066821    	DOMESTIQUE      	;
 N10e5           	244.00      	0.086864    	DOMESTIQUE      	;
 N10e4           	244.00      	0.071596    	DOMESTIQUE      	;
 N10e3           	243.00      	0.020660    	DOMESTIQUE      	;
 N10e1           	243.00      	0.087330    	DOMESTIQUE      	;
 N10de           	243.00      	0.109280    	DOMESTIQUE      	;
 N10dd           	242.00      	0.216930    	DOMESTIQUE      	;
 N10db           	243.00      	0.164483    	DOMESTIQUE      	;
 N10d9           	243.97      	0.189639    	DOMESTIQUE      	;
 N10d8           	244.26      	0.030579    	DOMESTIQUE      	;
 N10d6           	244.00      	0.405567    	DOMESTIQUE      	;
 N10d5           	244.00      	0.117170    	DOMESTIQUE      	;
 N10d4           	244.00      	0.054099    	DOMESTIQUE      	;
 N10d3           	241.80      	0.287626    	DOMESTIQUE      	;
 N10d2           	242.00      	2.973463    	DOMESTIQUE      	;
 N10d1           	243.46      	0.004176    	DOMESTIQUE      	;
 N10d0           	243.00      	1.125684    	DOMESTIQUE      	;
 N10ce           	245.93      	0.126014    	DOMESTIQUE      	;
 N10cd           	245.57      	0.168996    	DOMESTIQUE      	;
 N10cb           	244.00      	0.084229    	DOMESTIQUE      	;
 N10ca           	244.00      	0.088338    	DOMESTIQUE      	;
 N10c9           	244.00      	0.066469    	DOMESTIQUE      	;
 N10c8           	243.00      	0.002919    	DOMESTIQUE      	;
 N10c6           	245.00      	0.134891    	DOMESTIQUE      	;
 N10c4           	245.00      	0.159575    	DOMESTIQUE      	;
 N10c3           	244.78      	0.102059    	DOMESTIQUE      	;
 N10c2           	244.99      	0.246257    	DOMESTIQUE      	;
 N10c1           	245.64      	0.061023    	DOMESTIQUE      	;
 N10c0           	245.11      	0.260669    	DOMESTIQUE      	;
 N10bf           	244.00      	0.131167    	DOMESTIQUE      	;
 N10be           	243.00      	0.089499    	DOMESTIQUE      	;
 N10bd           	243.00      	0.200620    	DOMESTIQUE      	;
 N10bc           	244.00      	0.002739    	DOMESTIQUE      	;
 N10bb           	244.00      	0.041704    	DOMESTIQUE      	;
 N10ba           	243.80      	0.003757    	DOMESTIQUE      	;
 N10b9           	244.00      	0.051196    	DOMESTIQUE      	;
 N10b7           	243.00      	0.260442    	DOMESTIQUE      	;
 N10b6           	243.00      	0.007071    	DOMESTIQUE      	;
 N10b5           	243.00      	0.097114    	DOMESTIQUE      	;
 N10b3           	242.00      	0.159806    	DOMESTIQUE      	;
 N10b1           	243.62      	0.046644    	DOMESTIQUE      	;
 N10b0           	245.51      	0.000626    	DOMESTIQUE      	;
 N10ae           	244.21      	0.019131    	DOMESTIQUE      	;
 N10ac           	244.45      	0.018395    	DOMESTIQUE      	;
 N10ab           	244.55      	0.020767    	DOMESTIQUE      	;
 N10a8           	244.00      	0.022839    	DOMESTIQUE      	;
 N10a7           	244.00      	0.010446    	DOMESTIQUE      	;
 N10a6           	244.00      	0.019072    	DOMESTIQUE      	;
 N10a5           	244.00      	0.006575    	DOMESTIQUE      	;
 N10a4           	244.00      	0.016680    	DOMESTIQUE      	;
 N10a3           	244.00      	0.127683    	DOMESTIQUE      	;
 N10a0           	244.00      	0.245051    	DOMESTIQUE      	;
 N109f           	244.00      	0.247348    	DOMESTIQUE      	;
 N109d           	244.00      	0.020004    	DOMESTIQUE      	;
 N109c           	244.00      	0.008909    	DOMESTIQUE      	;
 N109a           	243.00      	0.133781    	DOMESTIQUE      	;
 N1098           	242.00      	0.233228    	DOMESTIQUE      	;
 N1096           	243.00      	0.281782    	DOMESTIQUE      	;
 N1094           	244.00      	0.001278    	DOMESTIQUE      	;
 N1091           	255.00      	0.006665    	DOMESTIQUE      	;
 N108f           	255.00      	0.003865    	DOMESTIQUE      	;
 N108e           	261.00      	0.001768    	DOMESTIQUE      	;
 N108d           	261.00      	0.009932    	DOMESTIQUE      	;
 N108c           	259.81      	0.001483    	DOMESTIQUE      	;
 N108b           	260.00      	0.012795    	DOMESTIQUE      	;
 N108a           	261.00      	0.002735    	DOMESTIQUE      	;
 N1089           	261.00      	0.007695    	DOMESTIQUE      	;
 N1088           	261.00      	0.001917    	DOMESTIQUE      	;
 N1087           	261.00      	0.008549    	DOMESTIQUE      	;
 N1084           	261.00      	0.001063    	DOMESTIQUE      	;
 N1083           	261.00      	0.010563    	DOMESTIQUE      	;
 N1082           	261.00      	0.012632    	DOMESTIQUE      	;
 N1081           	260.85      	0.006900    	DOMESTIQUE      	;
 N107f           	259.00      	0.015422    	DOMESTIQUE      	;
 N107d           	258.05      	0.031605    	DOMESTIQUE      	;
 N107b           	261.00      	0.002223    	DOMESTIQUE      	;
 N1079           	261.00      	0.043117    	DOMESTIQUE      	;
 N1077           	255.00      	0.000010    	DOMESTIQUE      	;
 N1075           	251.87      	0.189933    	DOMESTIQUE      	;
 N106a           	243.00      	0.001293    	DOMESTIQUE      	;
 N1069           	254.18      	0.383509    	DOMESTIQUE      	;
 N1068           	254.11      	0.247421    	DOMESTIQUE      	;
 N1067           	255.00      	0.077719    	DOMESTIQUE      	;
 N1066           	254.14      	0.106854    	DOMESTIQUE      	;
 N1065           	255.00      	0.105077    	DOMESTIQUE      	;
 N1061           	264.50      	0.121668    	DOMESTIQUE      	;
 N1060           	267.38      	0.673915    	DOMESTIQUE      	;
 N105f           	252.00      	0.018904    	DOMESTIQUE      	;
 N105e           	252.14      	0.146840    	DOMESTIQUE      	;
 N105d           	252.00      	0.070037    	DOMESTIQUE      	;
 N105c           	254.00      	0.000000    	DOMESTIQUE      	;
 N105b           	254.00      	0.007398    	DOMESTIQUE      	;
 N105a           	254.00      	0.256887    	DOMESTIQUE      	;
 N1059           	254.00      	0.002682    	DOMESTIQUE      	;
 N1058           	254.00      	0.006757    	DOMESTIQUE      	;
 N1057           	254.00      	0.016721    	DOMESTIQUE      	;
 N1056           	254.94      	0.009286    	DOMESTIQUE      	;
 N1055           	256.00      	0.025275    	DOMESTIQUE      	;
 N1054           	256.00      	0.017625    	DOMESTIQUE      	;
 N1053           	254.00      	0.001094    	DOMESTIQUE      	;
 N1052           	253.27      	0.008197    	DOMESTIQUE      	;
 N1051           	254.00      	0.008994    	DOMESTIQUE      	;
 N1050           	253.57      	0.005332    	DOMESTIQUE      	;
 N104f           	253.80      	0.009782    	DOMESTIQUE      	;
 N104e           	253.67      	0.108220    	DOMESTIQUE      	;
 N104c           	254.00      	0.313009    	DOMESTIQUE      	;
 N104b           	254.00      	0.005530    	DOMESTIQUE      	;
 N104a           	254.00      	0.070770    	DOMESTIQUE      	;
 N1048           	254.00      	0.007088    	DOMESTIQUE      	;
 N1047           	254.24      	0.093297    	DOMESTIQUE      	;
 N1046           	251.71      	0.047479    	DOMESTIQUE      	;
 N1045           	251.34      	0.032788    	DOMESTIQUE      	;
 N1043           	251.50      	0.025884    	DOMESTIQUE      	;
 N1042           	251.70      	0.005901    	DOMESTIQUE      	;
 N1041           	251.00      	0.000002    	DOMESTIQUE      	;
 N1040           	251.00      	0.000097    	DOMESTIQUE      	;
 N103f           	257.00      	0.000000    	DOMESTIQUE      	;
 N103e           	256.00      	0.074998    	DOMESTIQUE      	;
 N103d           	257.00      	0.000000    	DOMESTIQUE      	;
 N103c           	257.00      	0.000000    	DOMESTIQUE      	;
 N103b           	257.00      	0.000000    	DOMESTIQUE      	;
 N103a           	257.00      	0.047054    	DOMESTIQUE      	;
 N1039           	259.00      	0.002562    	DOMESTIQUE      	;
 N1038           	259.48      	0.015044    	DOMESTIQUE      	;
 N1037           	257.00      	0.019919    	DOMESTIQUE      	;
 N1036           	264.99      	0.003098    	DOMESTIQUE      	;
 N1035           	267.80      	0.455586    	DOMESTIQUE      	;
 N1034           	267.00      	0.000994    	DOMESTIQUE      	;
 N1033           	267.00      	0.014093    	DOMESTIQUE      	;
 N1032           	267.00      	0.115954    	DOMESTIQUE      	;
 N1031           	267.00      	0.116720    	DOMESTIQUE      	;
 N1030           	267.00      	0.011931    	DOMESTIQUE      	;
 N102f           	267.00      	0.008285    	DOMESTIQUE      	;
 N102e           	267.00      	0.002625    	DOMESTIQUE      	;
 N102d           	267.00      	0.000802    	DOMESTIQUE      	;
 N102c           	265.38      	0.229729    	DOMESTIQUE      	;
 N102b           	260.13      	0.034883    	DOMESTIQUE      	;
 N102a           	259.69      	0.021442    	DOMESTIQUE      	;
 N1029           	244.00      	0.036164    	DOMESTIQUE      	;
 N1028           	244.00      	0.012425    	DOMESTIQUE      	;
 N1027           	261.90      	0.902027    	DOMESTIQUE      	;
 N1026           	252.00      	0.079348    	DOMESTIQUE      	;
 N1025           	268.65      	0.002347    	DOMESTIQUE      	;
 N1024           	253.00      	0.061908    	DOMESTIQUE      	;
 N1023           	255.48      	0.071925    	DOMESTIQUE      	;
 N1022           	252.00      	0.155491    	DOMESTIQUE      	;
 N1021           	252.00      	0.030767    	DOMESTIQUE      	;
 N101f           	250.00      	0.008161    	DOMESTIQUE      	;
 N101e           	249.27      	0.001860    	DOMESTIQUE      	;
 N101d           	255.00      	0.044767    	DOMESTIQUE      	;
 N101c           	252.50      	0.226232    	DOMESTIQUE      	;
 N101b           	253.75      	0.327056    	DOMESTIQUE      	;
 N101a           	255.00      	0.008831    	DOMESTIQUE      	;
 N1019           	254.56      	0.000749    	DOMESTIQUE      	;
 N1018           	254.40      	0.036373    	DOMESTIQUE      	;
 N1017           	254.46      	0.016269    	DOMESTIQUE      	;
 N1016           	254.00      	0.006516    	DOMESTIQUE      	;
 N1015           	254.00      	0.146405    	DOMESTIQUE      	;
 N1014           	255.00      	0.000786    	DOMESTIQUE      	;
 N1013           	255.00      	0.001284    	DOMESTIQUE      	;
 N1012           	255.00      	0.019048    	DOMESTIQUE      	;
 N1011           	255.00      	0.020316    	DOMESTIQUE      	;
 N1010           	254.76      	0.061841    	DOMESTIQUE      	;
 N100f           	254.00      	0.005836    	DOMESTIQUE      	;
 N100e           	255.00      	0.002062    	DOMESTIQUE      	;
 N100d           	254.87      	0.008641    	DOMESTIQUE      	;
 N100c           	255.00      	0.007999    	DOMESTIQUE      	;
 N100b           	255.00      	0.018834    	DOMESTIQUE      	;
 N100a           	255.00      	0.033039    	DOMESTIQUE      	;
 N1009           	255.02      	0.073602    	DOMESTIQUE      	;
 N1008           	259.05      	0.007864    	DOMESTIQUE      	;
 N1007           	259.00      	0.209485    	DOMESTIQUE      	;
 N1005           	257.00      	0.069663    	DOMESTIQUE      	;
 N1004           	256.00      	0.017989    	DOMESTIQUE      	;
 N1003           	255.00      	0.743460    	DOMESTIQUE      	;
 N1002           	267.00      	1.104538    	DOMESTIQUE      	;
 N1001           	268.00      	0.001371    	DOMESTIQUE      	;
 N1000           	255.00      	0.000476    	DOMESTIQUE      	;
 Nfff            	255.00      	0.000205    	DOMESTIQUE      	;
 Nffe            	255.00      	0.004124    	DOMESTIQUE      	;
 Nffd            	254.18      	0.002919    	DOMESTIQUE      	;
 Nffc            	271.47      	0.007241    	DOMESTIQUE      	;
 Nffb            	271.00      	0.012505    	DOMESTIQUE      	;
 Nffa            	271.04      	0.032615    	DOMESTIQUE      	;
 Nff9            	271.90      	0.122643    	DOMESTIQUE      	;
 Nff8            	272.00      	0.142305    	DOMESTIQUE      	;
 Nff7            	250.75      	0.096032    	DOMESTIQUE      	;
 Nff6            	252.73      	0.116640    	DOMESTIQUE      	;
 Nff5            	241.15      	0.042694    	DOMESTIQUE      	;
 Nff4            	252.02      	0.043081    	DOMESTIQUE      	;
 Nff2            	253.00      	1.290858    	DOMESTIQUE      	;
 Nff1            	252.23      	0.015513    	DOMESTIQUE      	;
 Nff0            	253.00      	0.102053    	DOMESTIQUE      	;
 Nfef            	254.00      	0.040080    	DOMESTIQUE      	;
 Nfee            	258.00      	0.000000    	DOMESTIQUE      	;
 Nfed            	258.85      	0.001260    	DOMESTIQUE      	;
 Nfec            	252.00      	0.004286    	DOMESTIQUE      	;
 Nfeb            	250.72      	0.769377    	DOMESTIQUE      	;
 Nfea            	257.00      	0.080669    	DOMESTIQUE      	;
 Nfe9            	255.46      	0.151935    	DOMESTIQUE      	;
 Nfe8            	254.59      	0.039913    	DOMESTIQUE      	;
 Nfe7            	249.42      	0.007007    	DOMESTIQUE      	;
 Nfe6            	255.00      	0.000000    	DOMESTIQUE      	;
 Nfe5            	255.28      	0.000000    	DOMESTIQUE      	;
 Nfe4            	255.00      	0.000000    	DOMESTIQUE      	;
 Nfe3            	255.00      	0.000122    	DOMESTIQUE      	;
 Nfe2            	243.00      	0.000000    	DOMESTIQUE      	;
 Nfe1            	243.00      	0.000002    	DOMESTIQUE      	;
 Nfe0            	243.00      	0.000005    	DOMESTIQUE      	;
 Nfdf            	255.00      	0.000000    	DOMESTIQUE      	;
 Nfde            	251.00      	0.006253    	DOMESTIQUE      	;
 Nfdd            	250.00      	0.046807    	DOMESTIQUE      	;
 Nfdc            	255.54      	0.103193    	DOMESTIQUE      	;
 Nfdb            	258.25      	0.324498    	DOMESTIQUE      	;
 Nfda            	261.00      	0.054573    	DOMESTIQUE      	;
 Nfd9            	260.22      	0.199133    	DOMESTIQUE      	;
 Nfd8            	261.00      	0.328571    	DOMESTIQUE      	;
 Nfd7            	266.00      	0.001014    	DOMESTIQUE      	;
 Nfd6            	266.00      	0.000097    	DOMESTIQUE      	;
 Nfd5            	265.99      	0.001691    	DOMESTIQUE      	;
 Nfd4            	269.74      	0.154807    	DOMESTIQUE      	;
 Nfd3            	266.73      	0.068390    	DOMESTIQUE      	;
 Nfd2            	270.00      	0.050106    	DOMESTIQUE      	;
 Nfd1            	268.00      	0.167044    	DOMESTIQUE      	;
 Nfd0            	250.00      	0.058928    	DOMESTIQUE      	;
 Nfcf            	250.58      	0.008076    	DOMESTIQUE      	;
 Nfce            	248.34      	0.015939    	DOMESTIQUE      	;
 Nfcc            	254.00      	0.174325    	DOMESTIQUE      	;
 Nfcb            	252.08      	0.229554    	DOMESTIQUE      	;
 Nfca            	255.00      	0.048232    	DOMESTIQUE      	;
 Nfc9            	255.00      	0.058694    	DOMESTIQUE      	;
 Nfc8            	255.00      	0.162028    	DOMESTIQUE      	;
 Nfc7            	243.00      	0.000017    	DOMESTIQUE      	;
 Nfc6            	255.60      	0.027004    	DOMESTIQUE      	;
 Nfc5            	255.00      	0.042994    	DOMESTIQUE      	;
 Nfc4            	254.00      	0.006548    	DOMESTIQUE      	;
 Nfc3            	260.73      	0.003979    	DOMESTIQUE      	;
 Nfc2            	244.00      	0.022175    	DOMESTIQUE      	;
 Nfc1            	244.00      	0.015700    	DOMESTIQUE      	;
 Nfc0            	253.00      	0.008388    	DOMESTIQUE      	;
 Nfbf            	252.00      	0.052334    	DOMESTIQUE      	;
 Nfbe            	251.00      	0.046962    	DOMESTIQUE      	;
 Nfbd            	255.00      	0.024135    	DOMESTIQUE      	;
 Nfbc            	255.00      	0.003689    	DOMESTIQUE      	;
 Nfbb            	255.00      	0.190108    	DOMESTIQUE      	;
 Nfb9            	257.00      	0.027963    	DOMESTIQUE      	;
 Nfb8            	254.00      	0.087906    	DOMESTIQUE      	;
 Nfb7            	258.00      	0.116089    	DOMESTIQUE      	;
 Nfb6            	251.46      	0.083590    	DOMESTIQUE      	;
 Nfb5            	251.66      	0.190744    	DOMESTIQUE      	;
 Nfb4            	247.00      	0.120739    	DOMESTIQUE      	;
 Nfb3            	247.00      	0.187260    	DOMESTIQUE      	;
 Nfb2            	250.00      	0.000918    	DOMESTIQUE      	;
 Nfb1            	250.00      	0.203688    	DOMESTIQUE      	;
 Nfb0            	255.49      	0.000584    	DOMESTIQUE      	;
 Nfaf            	256.00      	0.036508    	DOMESTIQUE      	;
 Nfae            	255.00      	0.001254    	DOMESTIQUE      	;
 Nfad            	255.30      	0.003064    	DOMESTIQUE      	;
 Nfac            	250.00      	0.016410    	DOMESTIQUE      	;
 Nfaa            	253.73      	0.926661    	DOMESTIQUE      	;
 Nfa8            	254.00      	0.452783    	DOMESTIQUE      	;
 Nfa7            	252.00      	0.005704    	DOMESTIQUE      	;
 Nfa6            	252.00      	0.038305    	DOMESTIQUE      	;
 Nfa5            	252.56      	0.020317    	DOMESTIQUE      	;
 Nfa4            	250.98      	0.058250    	DOMESTIQUE      	;
 Nfa3            	251.00      	0.608288    	DOMESTIQUE      	;
 Nfa1            	255.00      	0.048847    	DOMESTIQUE      	;
 Nfa0            	253.00      	0.000866    	DOMESTIQUE      	;
 Nf9f            	255.00      	0.000378    	DOMESTIQUE      	;
 Nf9e            	255.00      	0.001834    	DOMESTIQUE      	;
 Nf9d            	255.00      	0.002312    	DOMESTIQUE      	;
 Nf9c            	255.00      	0.046700    	DOMESTIQUE      	;
 Nf9b            	255.00      	0.069277    	DOMESTIQUE      	;
 Nf9a            	255.00      	0.000175    	DOMESTIQUE      	;
 Nf99            	253.93      	0.000159    	DOMESTIQUE      	;
 Nf98            	250.02      	0.000014    	DOMESTIQUE      	;
 Nf97            	250.00      	0.000219    	DOMESTIQUE      	;
 Nf96            	250.00      	0.000202    	DOMESTIQUE      	;
 Nf95            	250.32      	0.000790    	DOMESTIQUE      	;
 Nf94            	250.32      	0.017973    	DOMESTIQUE      	;
 Nf93            	255.00      	0.146057    	DOMESTIQUE      	;
 Nf92            	254.40      	0.098158    	DOMESTIQUE      	;